<?xml version="1.0" encoding="UTF-8"?>

<!-- generated on jeu. 06 janv. 2022 00:58:25 by Eclipse SUMO netedit Version 1.4.0
<configuration xmlns:xsi="http://www.w3.org/2001/XMLSchema-instance" xsi:noNamespaceSchemaLocation="http://sumo.dlr.de/xsd/netconvertConfiguration.xsd">

    <input>
        <sumo-net-file value="/home/rram12/R_files/Etudes/SIA_21-22/RL/project/lane_change_RL/network/project1.net.xml"/>
    </input>

    <output>
        <output-file value="/home/rram12/R_files/Etudes/SIA_21-22/RL/project/lane_change_RL/network/project1.net.xml"/>
    </output>

    <processing>
        <geometry.min-radius.fix.railways value="false"/>
        <geometry.max-grade.fix value="false"/>
        <offset.disable-normalization value="true"/>
        <lefthand value="false"/>
    </processing>

    <junctions>
        <no-turnarounds value="true"/>
        <junctions.corner-detail value="5"/>
        <junctions.limit-turn-speed value="5.5"/>
        <rectangular-lane-cut value="false"/>
    </junctions>

    <pedestrian>
        <walkingareas value="false"/>
    </pedestrian>

    <report>
        <aggregate-warnings value="5"/>
    </report>

</configuration>
-->

<net version="1.3" junctionCornerDetail="5" limitTurnSpeed="5.50" xmlns:xsi="http://www.w3.org/2001/XMLSchema-instance" xsi:noNamespaceSchemaLocation="http://sumo.dlr.de/xsd/net_file.xsd">

    <location netOffset="0.00,0.00" convBoundary="-1100.00,-42.94,1100.00,200.00" origBoundary="-10000000000.00,-10000000000.00,10000000000.00,10000000000.00" projParameter="!"/>

    <edge id=":j0_0" function="internal">
        <lane id=":j0_0_0" index="0" speed="13.89" length="20.53" shape="-825.41,87.35 -821.81,88.91 -817.60,90.42 -812.34,91.55 -805.60,92.00"/>
    </edge>
    <edge id=":j0_1" function="internal">
        <lane id=":j0_1_0" index="0" speed="13.89" length="20.77" shape="-826.37,92.00 -805.60,92.00"/>
        <lane id=":j0_1_1" index="1" speed="13.89" length="20.77" shape="-826.37,95.20 -805.60,95.20"/>
        <lane id=":j0_1_2" index="2" speed="13.89" length="20.77" shape="-826.37,98.40 -805.60,98.40"/>
    </edge>
    <edge id=":j0_4" function="internal">
        <lane id=":j0_4_0" index="0" speed="13.89" length="9.19" shape="-813.41,102.78 -811.03,101.50 -809.59,100.06 -808.11,98.89 -805.60,98.40"/>
    </edge>
    <edge id=":j1_0" function="internal">
        <lane id=":j1_0_0" index="0" speed="13.42" length="9.15" shape="708.08,92.00 710.69,91.74 712.37,91.00 713.93,89.82 716.17,88.25"/>
    </edge>
    <edge id=":j1_1" function="internal">
        <lane id=":j1_1_0" index="0" speed="13.89" length="9.14" shape="708.08,92.00 717.22,92.00"/>
        <lane id=":j1_1_1" index="1" speed="13.89" length="9.14" shape="708.08,95.20 717.22,95.20"/>
        <lane id=":j1_1_2" index="2" speed="13.89" length="9.14" shape="708.08,98.40 717.22,98.40"/>
    </edge>
    <edge id=":j1_4" function="internal">
        <lane id=":j1_4_0" index="0" speed="13.89" length="4.98" shape="708.08,98.40 709.21,98.86 709.60,99.92 709.97,101.12 711.04,101.99"/>
    </edge>

    <edge id="in0" from="e1" to="j0" priority="-1">
        <lane id="in0_0" index="0" speed="13.89" length="302.63" shape="-1100.51,198.48 -813.41,102.78"/>
    </edge>
    <edge id="in1" from="e2" to="j0" priority="-1">
        <lane id="in1_0" index="0" speed="13.89" length="275.30" shape="-1078.40,-21.22 -825.41,87.35"/>
    </edge>
    <edge id="m0" from="e0" to="j0" priority="-1">
        <lane id="m0_0" index="0" speed="13.89" length="273.63" shape="-1100.00,92.00 -826.37,92.00"/>
        <lane id="m0_1" index="1" speed="13.89" length="273.63" shape="-1100.00,95.20 -826.37,95.20"/>
        <lane id="m0_2" index="2" speed="13.89" length="273.63" shape="-1100.00,98.40 -826.37,98.40"/>
    </edge>
    <edge id="m1" from="j0" to="j1" priority="-1">
        <lane id="m1_0" index="0" speed="13.89" length="1513.68" shape="-805.60,92.00 708.08,92.00"/>
        <lane id="m1_1" index="1" speed="13.89" length="1513.68" shape="-805.60,95.20 708.08,95.20"/>
        <lane id="m1_2" index="2" speed="13.89" length="1513.68" shape="-805.60,98.40 708.08,98.40"/>
    </edge>
    <edge id="m2" from="j1" to="e3" priority="-1">
        <lane id="m2_0" index="0" speed="13.89" length="382.78" shape="717.22,92.00 1100.00,92.00"/>
        <lane id="m2_1" index="1" speed="13.89" length="382.78" shape="717.22,95.20 1100.00,95.20"/>
        <lane id="m2_2" index="2" speed="13.89" length="382.78" shape="717.22,98.40 1100.00,98.40"/>
    </edge>
    <edge id="out0" from="j1" to="e4" priority="-1">
        <lane id="out0_0" index="0" speed="13.89" length="305.13" shape="711.04,101.99 1000.51,198.48"/>
    </edge>
    <edge id="out1" from="j1" to="e5" priority="-1">
        <lane id="out1_0" index="0" speed="13.89" length="254.37" shape="716.17,88.25 933.27,-44.30"/>
    </edge>

    <junction id="e0" type="dead_end" x="-1100.00" y="100.00" incLanes="" intLanes="" shape="-1100.00,100.00 -1100.00,90.40"/>
    <junction id="e1" type="dead_end" x="-1100.00" y="200.00" incLanes="" intLanes="" shape="-1100.00,200.00 -1101.01,196.96"/>
    <junction id="e2" type="dead_end" x="-1079.03" y="-19.75" incLanes="" intLanes="" shape="-1079.03,-19.75 -1077.77,-22.69"/>
    <junction id="e3" type="dead_end" x="1100.00" y="100.00" incLanes="m2_0 m2_1 m2_2" intLanes="" shape="1100.00,90.40 1100.00,100.00"/>
    <junction id="e4" type="dead_end" x="1000.00" y="200.00" incLanes="out0_0" intLanes="" shape="1001.01,196.96 1000.00,200.00"/>
    <junction id="e5" type="dead_end" x="934.10" y="-42.94" incLanes="out1_0" intLanes="" shape="932.43,-45.67 934.10,-42.94"/>
    <junction id="j0" type="priority" x="-800.00" y="100.00" incLanes="in1_0 m0_0 m0_1 m0_2 in0_0" intLanes=":j0_0_0 :j0_1_0 :j0_1_1 :j0_1_2 :j0_4_0" shape="-805.60,100.00 -805.60,90.40 -809.81,90.34 -812.94,90.09 -815.49,89.60 -817.98,88.78 -820.90,87.57 -824.78,85.88 -826.05,88.82 -826.37,90.40 -826.37,100.00 -821.51,100.04 -817.76,100.14 -815.13,100.32 -813.61,100.56 -813.21,100.88 -813.91,101.26 -812.90,104.30 -810.16,102.59 -809.33,101.65 -808.48,100.82 -807.33,100.23">
        <request index="0" response="01110" foes="01110" cont="0"/>
        <request index="1" response="00000" foes="10001" cont="0"/>
        <request index="2" response="00000" foes="10001" cont="0"/>
        <request index="3" response="00000" foes="10001" cont="0"/>
        <request index="4" response="01110" foes="01110" cont="0"/>
    </junction>
    <junction id="j1" type="priority" x="700.00" y="100.00" incLanes="m1_0 m1_1 m1_2" intLanes=":j1_0_0 :j1_1_0 :j1_1_1 :j1_1_2 :j1_4_0" shape="710.53,103.51 711.54,100.47 711.54,100.21 712.25,100.12 713.43,100.05 715.09,100.01 717.22,100.00 717.22,90.40 717.00,89.62 715.34,86.89 712.82,88.73 711.93,89.43 710.99,89.96 709.78,90.29 708.08,90.40 708.08,100.00">
        <request index="0" response="00000" foes="00000" cont="0"/>
        <request index="1" response="00000" foes="00000" cont="0"/>
        <request index="2" response="00000" foes="00000" cont="0"/>
        <request index="3" response="00000" foes="00000" cont="0"/>
        <request index="4" response="00000" foes="00000" cont="0"/>
    </junction>

    <connection from="in0" to="m1" fromLane="0" toLane="2" via=":j0_4_0" dir="s" state="m"/>
    <connection from="in1" to="m1" fromLane="0" toLane="0" via=":j0_0_0" dir="s" state="m"/>
    <connection from="m0" to="m1" fromLane="0" toLane="0" via=":j0_1_0" dir="s" state="M"/>
    <connection from="m0" to="m1" fromLane="1" toLane="1" via=":j0_1_1" dir="s" state="M"/>
    <connection from="m0" to="m1" fromLane="2" toLane="2" via=":j0_1_2" dir="s" state="M"/>
    <connection from="m1" to="out1" fromLane="0" toLane="0" via=":j1_0_0" dir="R" state="M"/>
    <connection from="m1" to="m2" fromLane="0" toLane="0" via=":j1_1_0" dir="s" state="M"/>
    <connection from="m1" to="m2" fromLane="1" toLane="1" via=":j1_1_1" dir="s" state="M"/>
    <connection from="m1" to="m2" fromLane="2" toLane="2" via=":j1_1_2" dir="s" state="M"/>
    <connection from="m1" to="out0" fromLane="2" toLane="0" via=":j1_4_0" dir="L" state="M"/>

    <connection from=":j0_0" to="m1" fromLane="0" toLane="0" dir="s" state="M"/>
    <connection from=":j0_1" to="m1" fromLane="0" toLane="0" dir="s" state="M"/>
    <connection from=":j0_1" to="m1" fromLane="1" toLane="1" dir="s" state="M"/>
    <connection from=":j0_1" to="m1" fromLane="2" toLane="2" dir="s" state="M"/>
    <connection from=":j0_4" to="m1" fromLane="0" toLane="2" dir="s" state="M"/>
    <connection from=":j1_0" to="out1" fromLane="0" toLane="0" dir="R" state="M"/>
    <connection from=":j1_1" to="m2" fromLane="0" toLane="0" dir="s" state="M"/>
    <connection from=":j1_1" to="m2" fromLane="1" toLane="1" dir="s" state="M"/>
    <connection from=":j1_1" to="m2" fromLane="2" toLane="2" dir="s" state="M"/>
    <connection from=":j1_4" to="out0" fromLane="0" toLane="0" dir="L" state="M"/>

</net>
