<configuration>
    <input>
        <net-file value="project.net.xml" />
        <route-files value="routess.rou.xml" />
    </input>

</configuration>
